[General]
# General parameters
network=mobile6tisch.simulations.Mobile6TiSCH
sim-time-limit = 200s
warmup-period = 50s
repeat = 35
result-dir = /media/hdisk/other

# Seeds
seed-set = ${repetition}
num-rngs=5
*.mn[*].mobilenodecore.rng-0 = 0
*.br[*].mobility.rng-1 = 1
*.mn[*].mobility.rng-1 = 1
*.br[*].mobility.rng-2 = 2
*.mn[*].mobility.rng-2 = 2
*.br[*].radio.rng-3 = 3
*.mn[*].radio.rng-3 = 3
*.br[*].radio.rng-4 = 4
*.mn[*].radio.rng-4 = 4

# Other parameters
#radio
*.mn[0].radio.macAddress = 2000
*.mn[*].radio.macAddress = intuniform(2001, 20000)

#mobility
*.br[*].mobility.radius = 1m
*.mn[*].mobility.radius = 1m
*.br[*].mobility.mobilityType = 0
*.br[*].mobility.autoPosition = true
*.br[*].mobility.max*Speed = 0mps
*.*.mobility.areaWidth = 400m
*.*.mobility.areaHeight = 400m
*.mn[*].mobility.start* = intuniform(0m,400m)
*.br[*].mobility.start* = 0

#tsch
*.mn[*].tsch.queueLength = 64 # infinite queue
*.mn[*].tsch.areRetransmissionsEnabled = false
*.br[*].tsch.areRetransmissionsEnabled = false
*.*.tsch.maxRetransmissions = 4

#application
*.mn[*].mobilenodecore.period = 2s

#musf scheduling
*.nc.musfCtrlMsgRateUp = 0.1
*.nc.musfCtrlMsgRateDown = 0.1
*.musfRemoveUnusedTimeslots = false
*.mn[*].mobilenodecore.upRate = 0.5
*.mn[*].mobilenodecore.downRate = 0.5

################################# BUILDING BLOCKS ##############################

[Config deployment_p25]
*.*.mobility.positioningPolicy = "custom"
*.*.mobility.radius = 66.88m
*.numBR = 19
*.br[*].mobility.customBrPositions = "(362.3046875, 340.234375), (96.38671875, 122.94921875), (58.10546875, 197.65625), (24.4140625, 347.8515625), (17.7734375, 120.21484375), (56.15234375, 282.421875), (258.69140625, 256.4453125), (296.484375, 342.28515625), (194.62890625, 139.2578125), (215.13671875, 352.24609375), (166.6015625, 236.62109375), (122.16796875, 358.0078125), (349.0234375, 228.515625), (385.15625, 122.36328125), (352.9296875, 7.6171875), (52.734375, 39.6484375), (275.68359375, 50.68359375), (273.53515625, 144.23828125), (164.35546875, 25.0)"

[Config deployment_p50]
*.*.mobility.positioningPolicy = "custom"
*.*.mobility.radius = 56.21m
*.numBR = 25
*.br[*].mobility.customBrPositions = "(306.8359375, 3.02734375), (196.97265625, 349.90234375), (302.83203125, 271.6796875), (262.40234375, 303.22265625), (377.734375, 256.8359375), (30.2734375, 295.99609375), (125.5859375, 168.84765625), (362.3046875, 353.90625), (216.015625, 37.98828125), (50.0, 36.03515625), (46.875, 109.9609375), (174.90234375, 262.5), (220.1171875, 199.8046875), (275.5859375, 381.54296875), (133.0078125, 356.0546875), (50.0, 374.90234375), (150.0, 86.5234375), (25.0, 200.0), (299.8046875, 193.5546875), (135.7421875, 11.1328125), (224.51171875, 130.6640625), (304.1015625, 90.33203125), (374.70703125, 49.70703125), (378.80859375, 153.02734375), (97.16796875, 264.94140625)"

[Config deployment_p75]
*.*.mobility.positioningPolicy = "custom"
*.*.mobility.radius = 47.23m
*.br[*].mobility.customBrPositions = "(307.6171875, 21.875), (335.25390625, 256.25), (396.97265625, 252.5390625), (171.6796875, 24.12109375), (26.7578125, 288.0859375), (361.71875, 299.12109375), (144.62890625, 109.47265625), (97.0703125, 399.0234375), (15.625, 364.6484375), (158.203125, 198.046875), (262.109375, 109.08203125), (271.58203125, 292.96875), (289.2578125, 185.15625), (376.66015625, 177.734375), (30.2734375, 95.01953125), (207.51953125, 165.234375), (145.21484375, 273.92578125), (379.39453125, 78.61328125), (306.25, 355.56640625), (207.51953125, 84.86328125), (298.14453125, 228.80859375), (92.96875, 256.34765625), (172.8515625, 362.3046875), (108.59375, 33.10546875), (37.6953125, 31.8359375), (349.8046875, 123.046875), (34.9609375, 217.08984375), (94.7265625, 170.99609375), (366.9921875, 0.5859375), (247.75390625, 32.421875), (37.890625, 156.93359375), (213.37890625, 225.9765625), (250.1953125, 368.1640625), (87.40234375, 107.8125), (365.4296875, 367.96875), (96.19140625, 334.9609375), (195.41015625, 296.97265625), (313.671875, 100.0)"
*.numBR = 38

[Config deployment_p0001_alpha005]
*.*.mobility.positioningPolicy = "custom"
*.*.mobility.radius = 146.36m
*.br[*].mobility.customBrPositions = "(332.03125, 45.8984375), (116.2109375, 251.46484375), (293.84765625, 279.00390625), (120.703125, 16.69921875)"
*.numBR = 4

[Config deployment_p0001_alpha01]
*.*.mobility.positioningPolicy = "custom"
*.*.mobility.radius = 146.36m
*.br[*].mobility.customBrPositions = "(232.51953125, 54.4921875), (102.44140625, 172.4609375), (239.2578125, 355.078125), (384.27734375, 202.734375)"
*.numBR = 4

[Config deployment_p0001_alpha02]
*.*.mobility.positioningPolicy = "custom"
*.*.mobility.radius = 146.36m
*.br[*].mobility.customBrPositions = "(136.62109375, 163.4765625), (287.109375, 343.06640625), (227.83203125, 96.58203125)"
*.numBR = 3

[Config deployment_p75_alpha005]
*.*.mobility.positioningPolicy = "custom"
*.*.mobility.radius = 47.23m
*.br[*].mobility.customBrPositions = "(27.05078125, 144.921875), (300.390625, 160.83984375), (39.453125, 293.9453125), (98.2421875, 148.33984375), (359.08203125, 356.73828125), (101.3671875, 356.4453125), (186.62109375, 373.4375), (365.8203125, 266.89453125), (163.0859375, 110.64453125), (242.1875, 224.12109375), (319.43359375, 82.32421875), (361.81640625, 46.77734375), (276.5625, 17.48046875), (277.44140625, 371.6796875), (286.5234375, 300.1953125), (128.515625, 298.92578125), (379.4921875, 143.5546875), (236.71875, 99.8046875), (55.078125, 229.78515625), (150.0, 234.1796875), (37.01171875, 81.0546875), (216.50390625, 294.43359375), (37.6953125, 376.07421875), (121.484375, 44.3359375), (190.91796875, 177.9296875), (320.703125, 214.6484375), (207.12890625, 50.09765625), (38.0859375, 15.0390625)"
*.numBR = 28

[Config deployment_p75_alpha01]
*.*.mobility.positioningPolicy = "custom"
*.*.mobility.radius = 47.23m
*.br[*].mobility.customBrPositions = "(359.66796875, 349.31640625), (23.046875, 121.6796875), (46.58203125, 214.74609375), (302.1484375, 206.4453125), (224.8046875, 30.46875), (354.6875, 150.390625), (101.3671875, 151.85546875), (151.953125, 41.11328125), (45.99609375, 289.0625), (199.609375, 349.70703125), (59.1796875, 51.07421875), (129.6875, 245.1171875), (270.80078125, 99.0234375), (225.0, 260.25390625), (249.51171875, 178.22265625), (183.30078125, 114.16015625), (50.1953125, 366.9921875), (169.7265625, 190.4296875), (279.1015625, 377.1484375), (318.65234375, 22.265625), (301.953125, 296.38671875), (362.890625, 76.46484375), (128.515625, 335.9375), (368.65234375, 249.8046875)"
*.numBR = 24

[Config deployment_p75_alpha015]
*.*.mobility.positioningPolicy = "custom"
*.*.mobility.radius = 47.23m
*.br[*].mobility.customBrPositions = "(223.4375, 361.9140625), (220.3125, 134.9609375), (195.41015625, 45.1171875), (98.828125, 31.0546875), (43.65234375, 191.015625), (59.375, 116.796875), (111.62109375, 256.93359375), (309.765625, 124.70703125), (277.05078125, 212.79296875), (137.6953125, 375.09765625), (144.3359375, 99.4140625), (364.94140625, 188.0859375), (330.56640625, 356.0546875), (348.6328125, 272.94921875), (28.7109375, 277.1484375), (13.37890625, 50.09765625), (171.38671875, 203.7109375), (54.98046875, 347.8515625), (286.23046875, 37.5), (148.53515625, 301.3671875), (373.92578125, 56.93359375), (236.03515625, 275.87890625)"
*.numBR = 22

[Config deployment_p75_alpha02]
*.*.mobility.positioningPolicy = "custom"
*.*.mobility.radius = 47.23m
*.br[*].mobility.customBrPositions = "(297.0703125, 327.734375), (351.171875, 160.7421875), (103.41796875, 200.5859375), (29.78515625, 66.2109375), (230.56640625, 368.06640625), (95.3125, 26.46484375), (287.20703125, 235.25390625), (52.24609375, 349.8046875), (361.23046875, 270.01953125), (34.08203125, 157.8125), (270.41015625, 77.83203125), (182.91015625, 50.390625), (143.1640625, 347.75390625), (214.84375, 281.54296875), (174.31640625, 162.59765625), (109.5703125, 105.859375), (249.90234375, 160.83984375), (36.81640625, 249.12109375), (127.44140625, 268.06640625), (347.36328125, 51.66015625)"
*.numBR = 20
################################################################################

[Config scalability]
*.numMN = ${10,20,30,40,50,60,70,80,90,100,110,120,130,140,150,160,170,180,190,200}

[Config mobility]
*.mn[*].mobility.mobilityType = ${0, 1,2}
*.mn[*].mobility.maxXSpeed = 2mps

[Config speed]
*.mn[*].mobility.mobilityType = 1
*.mn[*].mobility.maxXSpeed = ${0.5,2,5}mps

################################################################################

[Config convergecast_sddu4]
*.application = "convergecast"  
*.scheduling = "sddu"   
*.channelsUsed = 4 

[Config reqres_dddu]
*.application = "reqres"  
*.scheduling = "dddu"   
*.channelsUsed = 16

[Config downstreamrr_sddu4]

*.application = "downstream_rr"
*.scheduling = "sddu"
*.channelsUsed = 4

##################################################################################
##################################### USER #######################################
##################################################################################
[Config test]
extends = deployment_p75_alpha02, mobility, scalability, convergecast_sddu4

[Config mobility_p0001_alpha005]
extends = deployment_p0001_alpha005, mobility, scalability, convergecast_sddu4

[Config speed_p0001_alpha005]
extends = deployment_p0001_alpha005, speed, scalability, convergecast_sddu4

[Config mobility_p0001_alpha01]
extends = deployment_p0001_alpha01, mobility, scalability, convergecast_sddu4

[Config speed_p0001_alpha01]
extends = deployment_p0001_alpha01, speed, scalability, convergecast_sddu4

[Config mobility_p0001_alpha02]
extends = deployment_p0001_alpha02, mobility, scalability, convergecast_sddu4

[Config speed_p0001_alpha02]
extends = deployment_p0001_alpha02, speed, scalability, convergecast_sddu4

###

[Config mobility_downstream]
extends = deployment_p75, mobility, scalability, downstreamrr_sddu4

[Config speed_downstream]
extends = deployment_p75, speed, scalability, downstreamrr_sddu4

[Config mobility_alpha02]
extends = deployment_p75_alpha02, mobility, scalability, convergecast_sddu4

[Config speed_alpha02]
extends = deployment_p75_alpha02, speed, scalability, convergecast_sddu4
