[General]
network=mobile6tisch.simulations.Mobile6TiSCH
sim-time-limit = 1000s
warmup-period = 10s
repeat = 35
seed-set = ${repetition}
result-dir = /media/hdisk/test

num-rngs=5
*.mn[*]..rng-0 = 0
*.br[*].mobility.rng-1 = 1
*.mn[*].mobility.rng-1 = 1
*.br[*].mobility.rng-2 = 2
*.mn[*].mobility.rng-2 = 2
*.br[*].radio.rng-3 = 3
*.mn[*].radio.rng-3 = 3
*.br[*].radio.rng-4 = 4
*.mn[*].radio.rng-4 = 4

*.mn[*].app.typename = "ReqResClient"
*.nc.app.typename = "ReqResServer"
*.mn[*].mobility.typename = "RandomMobility"
*.br[*].mobility.typename = "BRMobility"

*.br[*].mobility.brDeploymentPolicy = "IntFlowersBRMobility"
*.*.schedulingFunction.typename = "SDDUSF"
*.nc.schedulingFunction.downloadFromNC = false
*.numBR = 14
*.numMN = 10
*.areaHeight = 400m
*.areaWidth = 400m
*.br[*].mobility.targetCommunicationRadius = 76m
*.mn[*].mobility.start* = intuniform(0m,400m)
*.*.schedulingFunction.groupSize = 4
*.mn[*].ietf6TiSCH.areRetransmissionsEnabled = false
*.br[*].ietf6TiSCH.areRetransmissionsEnabled = false